resultados/CN15_EXP_CURRENTS.CSV
Element, I1_1, Ang1_1, I1_2, Ang1_2, I1_3, Ang1_3, I1_4, Ang1_4, Iresid1, AngResid1, I2_1, Ang2_1, I2_2, Ang2_2, I2_3, Ang2_3, I2_4, Ang2_4, Iresid2, AngResid2
Vsource.SOURCE,    1937.46,   139.43,    1937.46,    19.43,    1937.46,  -100.57,          0,     0.00, 0.000519796,   160.98,    1937.46,   -40.57,    1937.46,  -160.57,    1937.46,    79.43,          0,     0.00, 0.000519796,   -19.02
Line.L_CEI_MT_5070,    1401.54,   -41.67,    1401.54,  -161.67,    1401.54,    78.33,          0,     0.00, 0.000516834,   -18.91,    1401.54,   138.33,    1401.54,    18.33,    1401.54,  -101.67,          0,     0.00, 0.000516834,   161.09
Line.L_CEI_MT_15536,    1.05904,   138.30,    1.05904,    18.30,    1.05904,  -101.70,          0,     0.00, 4.24876E-009,     9.46,    1.05904,   -41.70,    1.05904,  -161.70,    1.05904,    78.30,          0,     0.00, 5.53432E-009,  -157.75
Line.L_CEI_MT_15882A,    1.05752,   -41.68,    1.05752,  -161.68,    1.05752,    78.32,          0,     0.00, 5.75991E-009,  -165.96,    1.05752,   138.32,    1.05752,    18.32,    1.05752,  -101.68,          0,     0.00, 7.46512E-009,    -3.58
Line.L_CEI_MT_16214A,    63.5003,   138.31,    63.5003,    18.31,    63.5003,  -101.69,          0,     0.00, 1.65251E-006,    19.02,    63.5003,   -41.69,    63.5003,  -161.69,    63.5003,    78.31,          0,     0.00, 1.65456E-006,  -161.02
Line.L_CEI_MT_16214A99,    63.5003,   -41.69,    63.5003,  -161.69,    63.5003,    78.31,          0,     0.00, 1.35654E-006,  -102.19,    63.5003,   138.31,    63.5003,    18.31,    63.5003,  -101.69,          0,     0.00, 1.35934E-006,    77.92
Line.L_CEI_MT_16434A,    39.6868,   138.31,    39.6868,    18.31,    39.6868,  -101.69,          0,     0.00, 1.49581E-006,    19.82,    39.6868,   -41.69,    39.6868,  -161.69,    39.6868,    78.31,          0,     0.00, 1.49984E-006,  -160.33
Line.L_CEI_MT_171819,    285.538,   138.34,    285.538,    18.34,    285.538,  -101.66,          0,     0.00, 0.00010362,   162.07,    285.538,   -41.66,    285.538,  -161.66,    285.538,    78.34,          0,     0.00, 0.000103621,   -17.92
Line.L_CEI_MT_171820,    285.538,   138.34,    285.538,    18.34,    285.538,  -101.66,          0,     0.00, 0.000103621,   162.08,    285.538,   -41.66,    285.538,  -161.66,    285.538,    78.34,          0,     0.00, 0.000103625,   -17.93
Line.L_CEI_MT_171828,    1.58771,   138.31,    1.58771,    18.31,    1.58771,  -101.69,          0,     0.00, 6.7199E-009,   -14.04,    1.58771,   -41.69,    1.58771,  -161.69,    1.58771,    78.31,          0,     0.00, 8.41096E-009,  -175.24
Line.L_CEI_MT_171838,    172.216,   -41.65,    172.216,  -161.65,    172.216,    78.35,          0,     0.00, 6.40345E-005,   -17.04,    172.216,   138.35,    172.216,    18.35,    172.216,  -101.65,          0,     0.00, 6.40335E-005,   162.95
Line.L_CEI_MT_171839,    169.044,   -41.65,    169.044,  -161.65,    169.044,    78.35,          0,     0.00, 6.40589E-005,   -17.03,    169.044,   138.35,    169.044,    18.35,    169.044,  -101.65,          0,     0.00, 6.40619E-005,   162.96
Line.L_CEI_MT_171841, 2.0825E-009,   153.43, 1.91997E-009,   -14.04, 3.75428E-009,    97.13,          0,     0.00, 4.21674E-009,    96.34, 4.29318E-009,   -40.60, 1.39698E-009,   180.00, 2.32831E-009,     0.00,          0,     0.00, 5.0369E-009,   -33.69
Line.L_CEI_MT_171843, 3.72529E-009,   -90.00, 1.04125E-009,    63.43, 3.75428E-009,   -97.13,          0,     0.00, 6.51926E-009,   -90.00, 1.39698E-009,   -90.00, 1.67897E-009,  -146.31, 1.39698E-009,     0.00,          0,     0.00, 2.32831E-009,   -90.00
Line.L_CEI_MT_171854, 2.0825E-009,   -63.43, 2.98169E-009,   141.34, 1.86265E-009,   -90.00,          0,     0.00, 2.32831E-009,  -126.87, 2.32831E-009,   143.13, 1.91997E-009,    14.04, 2.32831E-009,     0.00,          0,     0.00, 2.98169E-009,    38.66
Line.L_CEI_MT_171863,    240.012,   138.34,    240.012,    18.34,    240.012,  -101.66,          0,     0.00, 9.36961E-005,   164.22,    240.012,   -41.66,    240.012,  -161.66,    240.012,    78.34,          0,     0.00, 9.36979E-005,   -15.78
Line.L_CEI_MT_171864,    240.012,   -41.66,    240.012,  -161.66,    240.012,    78.34,          0,     0.00, 9.36955E-005,   -15.78,    240.012,   138.34,    240.012,    18.34,    240.012,  -101.66,          0,     0.00, 9.36959E-005,   164.22
Line.L_CEI_MT_171865,    240.012,   -41.66,    240.012,  -161.66,    240.012,    78.34,          0,     0.00, 9.3698E-005,   -15.78,    240.012,   138.34,    240.012,    18.34,    240.012,  -101.66,          0,     0.00, 9.37018E-005,   164.22
Line.L_CEI_MT_171866,    240.012,   138.34,    240.012,    18.34,    240.012,  -101.66,          0,     0.00, 9.37058E-005,   164.22,    240.012,   -41.66,    240.012,  -161.66,    240.012,    78.34,          0,     0.00, 9.37042E-005,   -15.78
Line.L_CEI_MT_171867,    434.692,   -41.66,    434.692,  -161.66,    434.692,    78.34,          0,     0.00, 0.000157304,   -19.96,    434.692,   138.34,    434.692,    18.34,    434.692,  -101.66,          0,     0.00, 0.000157303,   160.04
Line.L_CEI_MT_171870,    674.704,   -41.66,    674.704,  -161.66,    674.704,    78.34,          0,     0.00, 0.000250837,   -18.40,    674.704,   138.34,    674.704,    18.34,    674.704,  -101.66,          0,     0.00, 0.000250836,   161.60
Line.L_CEI_MT_171871, 1.21005E-008,  -120.02, 8.41096E-009,  -175.24, 1.27101E-008,    61.56,          0,     0.00, 8.3819E-009,   180.00, 1.10392E-008,    62.35, 1.02868E-008,     5.19, 1.0861E-008,  -120.96,          0,     0.00, 9.87817E-009,     8.13
Line.L_CEI_MT_171872, 6.35504E-009,   -98.43, 8.13242E-009,  -156.37, 4.65661E-009,    53.13,          0,     0.00, 8.06885E-009,  -133.83, 6.51926E-009,    90.00, 8.56108E-009,    22.38, 5.8902E-009,  -108.43,          0,     0.00, 7.36275E-009,    34.70
Line.L_CEI_MT_171881, 1.56188E-009,   -26.57, 7.08127E-009,  -170.54, 3.97861E-009,    69.44,          0,     0.00, 4.58623E-009,   156.04, 1.47255E-009,   161.57, 6.66725E-009,    12.09, 3.83994E-009,  -104.04,          0,     0.00, 4.58623E-009,   -23.96
Line.L_CEI_MT_171882, 2.71525E-009,  -149.04, 3.39007E-009,   -74.05, 2.0825E-009,   116.57,          0,     0.00, 3.63693E-009,  -129.81, 2.47502E-009,    41.19, 2.91736E-009,    61.39, 2.79397E-009,     0.00,          0,     0.00, 7.36275E-009,    34.70
Line.L_CEI_MT_171885,    674.704,   -41.66,    674.704,  -161.66,    674.704,    78.34,          0,     0.00, 0.000250843,   -18.39,    674.704,   138.34,    674.704,    18.34,    674.704,  -101.66,          0,     0.00, 0.000250842,   161.61
Line.L_CEI_MT_171886, 8.26795E-009,   -80.27, 7.61253E-009,  -156.57, 4.165E-009,    63.43,          0,     0.00,  8.33E-009,  -116.57, 8.69927E-009,   105.52, 6.0536E-009,    22.62, 2.0825E-009,  -116.57,          0,     0.00, 9.14879E-009,    75.26
Line.L_CEI_MT_171887, 4.91157E-009,   -84.56, 5.55388E-009,  -146.98, 2.63418E-009,    45.00,          0,     0.00, 6.48591E-009,  -111.04, 3.39007E-009,   105.95, 7.70807E-009,    25.02, 1.39698E-009,   180.00,          0,     0.00, 8.01154E-009,    54.46
Line.L_CEI_MT_171888, 2.29312E-009,  -113.96, 1.87714E-009,  -172.87, 2.32831E-009,   126.87,          0,     0.00, 4.21674E-009,  -173.66, 2.32831E-009,   -53.13, 1.47255E-009,   108.43, 9.31323E-010,     0.00,          0,     0.00, 1.91997E-009,   -14.04
Line.L_CEI_MT_171889,    674.704,   -41.66,    674.704,  -161.66,    674.704,    78.34,          0,     0.00, 0.000250845,   -18.39,    674.704,   138.34,    674.704,    18.34,    674.704,  -101.66,          0,     0.00, 0.000250845,   161.61
Line.L_CEI_MT_171893,    674.704,   -41.66,    674.704,  -161.66,    674.704,    78.34,          0,     0.00, 0.000250844,   -18.39,    674.704,   138.34,    674.704,    18.34,    674.704,  -101.66,          0,     0.00, 0.000250839,   161.60
Line.L_CEI_MT_171895, 4.00577E-009,   -54.46, 2.50766E-009,   -68.20, 2.0825E-009,  -116.57,          0,     0.00, 7.80591E-009,   -72.65, 1.31709E-009,   135.00, 2.71525E-009,    59.04, 3.72529E-009,    90.00,          0,     0.00, 7.00042E-009,    86.19
Line.L_CEI_MT_171897,    669.415,   138.34,    669.414,    18.34,    669.414,  -101.66,          0,     0.00, 0.000244773,   161.59,    669.415,   -41.66,    669.414,  -161.66,    669.414,    78.34,          0,     0.00, 0.000244771,   -18.41
Line.L_CEI_MT_171898, 1.03394E-008,    35.84, 1.2329E-008,    10.89, 1.06289E-008,  -118.81,          0,     0.00, 1.5395E-008,    -3.47, 9.96559E-009,  -142.59, 1.40646E-008,  -173.35, 1.11078E-008,    56.98,          0,     0.00, 1.59162E-008,   174.12
Line.L_CEI_MT_171900, 6.12482E-009,   -98.75, 7.92993E-009,  -176.63, 6.0536E-009,    67.38,          0,     0.00, 6.58545E-009,  -171.87, 4.21674E-009,    83.66, 6.53587E-009,     4.09, 3.97861E-009,  -110.56,          0,     0.00, 5.66501E-009,     9.46
Line.L_CEI_MT_171901, 4.42378E-009,   -90.00, 4.68563E-009,  -153.43, 1.86265E-009,    90.00,          0,     0.00, 6.26483E-009,  -131.99, 4.19741E-009,   109.44, 5.82077E-009,    36.87, 1.86265E-009,   -90.00,          0,     0.00, 6.46917E-009,    59.74
Line.L_CEI_MT_171903, 1.47255E-009,   161.57, 4.65661E-010,   -90.00, 3.72529E-009,    90.00,          0,     0.00, 3.97861E-009,   110.56, 2.0825E-009,   -63.43, 2.98169E-009,    38.66, 9.31323E-010,   180.00,          0,     0.00, 2.32831E-009,     0.00
Line.L_CEI_MT_171909,    229.954,   138.34,    229.954,    18.34,    229.954,  -101.66,          0,     0.00, 8.04562E-005,   162.16,    229.954,   -41.66,    229.954,  -161.66,    229.954,    78.34,          0,     0.00, 8.0458E-005,   -17.84
Line.L_CEI_MT_171910,    229.954,   -41.66,    229.954,  -161.66,    229.954,    78.34,          0,     0.00, 8.04515E-005,   -17.84,    229.954,   138.34,    229.954,    18.34,    229.954,  -101.66,          0,     0.00, 8.04495E-005,   162.16
Line.L_CEI_MT_171911, 4.29318E-009,   139.40, 2.71525E-009,    59.04, 1.86265E-009,   180.00,          0,     0.00, 6.33368E-009,   126.03, 5.43549E-009,   -46.74, 2.9451E-009,  -161.57, 1.86265E-009,     0.00,          0,     0.00, 5.63142E-009,   -60.26
Line.L_CEI_MT_171919, 2.14659E-009,  -102.53, 1.25383E-009,  -111.80, 1.86265E-009,   180.00,          0,     0.00, 4.29318E-009,  -130.60, 1.39698E-009,    90.00, 4.39304E-009,   147.99, 9.31323E-010,     0.00,          0,     0.00, 4.65661E-009,   126.87
Line.L_CEI_MT_171921, 2.9451E-009,  -108.43, 2.0825E-009,   -26.57,          0,     0.00,          0,     0.00, 3.83994E-009,   -75.96, 3.46128E-009,    47.73, 2.09548E-009,    90.00, 9.31323E-010,     0.00,          0,     0.00, 5.68412E-009,    55.01
Line.L_CEI_MT_171953, 8.95717E-009,  -117.90, 1.34398E-008,  -165.96, 1.27101E-008,    61.56,          0,     0.00, 1.11759E-008,   180.00, 8.58953E-009,    57.17, 1.03079E-008,    18.43, 1.06289E-008,  -118.81,          0,     0.00, 9.3857E-009,     7.13
Line.L_CEI_MT_171954, 2.56114E-009,   -90.00, 3.25963E-009,   -90.00, 4.65661E-010,   180.00,          0,     0.00, 5.83936E-009,   -94.57, 1.67897E-009,    33.69, 2.71525E-009,   120.96, 3.83994E-009,    75.96,          0,     0.00, 7.04673E-009,    82.41
Line.L_CEI_MT_171955, 1.49665E-008,   -95.36, 8.41096E-009,  -175.24, 1.19267E-008,    51.34,          0,     0.00, 6.70374E-009,  -110.32, 1.42465E-008,    78.69, 7.00042E-009,     3.81, 1.16415E-008,  -126.87,          0,     0.00, 5.83472E-009,    61.39
Line.L_CEI_MT_171958, 2.50766E-009,   -68.20, 9.27824E-009,  -162.47, 6.2475E-009,    63.43,          0,     0.00, 5.1434E-009,   174.81, 1.87714E-009,    60.26, 9.94653E-009,    20.56, 5.75991E-009,  -104.04,          0,     0.00, 8.85981E-009,    -3.01
Line.L_CEI_MT_171959, 3.76149E-009,   -68.20, 3.33363E-009,  -167.91, 2.0825E-009,    63.43,          0,     0.00, 2.50766E-009,  -111.80, 1.86265E-009,    90.00, 9.31323E-010,     0.00, 1.91997E-009,  -104.04,          0,     0.00, 4.65661E-010,     0.00
Line.L_CEI_MT_171960, 2.0825E-009,  -116.57, 1.91997E-009,   -14.04, 2.32831E-009,    53.13,          0,     0.00, 2.37442E-009,   -11.31, 1.41625E-009,    -9.46, 3.75428E-009,   150.26, 2.32831E-009,  -126.87,          0,     0.00, 3.26793E-009,  -175.91
Line.L_CEI_MT_171961, 2.98169E-009,   128.66, 8.39483E-010,    56.31, 3.72529E-009,    90.00,          0,     0.00, 6.89509E-009,   101.69, 2.83251E-009,   -80.54, 1.31709E-009,   -45.00, 2.0825E-009,    63.43,          0,     0.00, 2.98169E-009,   -38.66
Line.L_CEI_MT_171965, 2.72644E-006,   143.44, 5.30829E-006,   161.78, 2.82601E-006,    52.09,          0,     0.00, 7.7845E-006,   134.91, 2.72723E-006,   -36.56, 5.30748E-006,   -18.21, 2.82544E-006,  -127.90,          0,     0.00, 7.78483E-006,   -45.08
Line.L_CEI_MT_171966, 2.72229E-006,   -36.44, 5.31029E-006,   -18.19, 2.82855E-006,  -128.04,          0,     0.00, 7.77412E-006,   -45.05, 2.72112E-006,   143.56, 5.31021E-006,   161.80, 2.83059E-006,    51.97,          0,     0.00, 7.77413E-006,   134.92
Line.L_CEI_MT_171967, 2.72014E-006,   -36.46, 5.31139E-006,   -18.19, 2.8326E-006,  -128.08,          0,     0.00, 7.77166E-006,   -45.09, 2.71804E-006,   143.55, 5.31175E-006,   161.80, 2.83435E-006,    51.93,          0,     0.00, 7.77133E-006,   134.89
Line.L_CEI_MT_171969, 2.37442E-009,  -101.31, 2.32831E-009,   143.13, 2.0825E-009,   -63.43,          0,     0.00, 3.12375E-009,  -116.57, 1.49084E-009,    51.34, 2.33992E-009,    -5.71, 1.86265E-009,    90.00,          0,     0.00, 4.29318E-009,    40.60
Line.L_CEI_MT_171976, 4.88944E-009,    90.00, 8.53889E-009,    11.00, 4.95005E-009,  -131.19,          0,     0.00, 5.83472E-009,    28.61, 4.97735E-009,   -79.22, 9.04151E-009,  -168.11, 5.96337E-009,    38.66,          0,     0.00, 4.44822E-009,  -137.12
Line.L_CEI_MT_171977, 2.98169E-009,  -128.66, 3.72529E-009,   180.00, 5.66501E-009,    80.54,          0,     0.00, 5.68412E-009,   145.01, 1.47255E-009,    18.43, 1.04125E-009,   -63.43, 3.72529E-009,   -90.00,          0,     0.00, 4.58623E-009,   -66.04
Line.L_CEI_MT_171978, 1.67897E-009,   -56.31, 1.86265E-009,   180.00, 2.32831E-009,   -53.13,          0,     0.00, 3.29272E-009,   -81.87, 6.58545E-010,  -135.00, 2.32831E-009,  -126.87, 9.31323E-010,   180.00,          0,     0.00, 3.63693E-009,  -140.19
Line.L_CEI_MT_171981,    11.5901,   138.36,    11.5901,    18.36,    11.5901,  -101.64,          0,     0.00, 1.51629E-006,   170.23,    11.5901,   -41.64,    11.5901,  -161.64,    11.5901,    78.36,          0,     0.00, 1.51549E-006,    -9.80
Line.L_CEI_MT_171986, 6.98492E-010,    90.00, 4.00577E-009,    54.46, 3.97861E-009,   -69.44,          0,     0.00, 3.73256E-009,     3.58, 4.65661E-010,    90.00, 3.35793E-009,  -146.31, 2.0825E-009,   116.57,          0,     0.00, 3.75428E-009,   172.87
Line.L_CEI_MT_171987,    11.5901,   138.36,    11.5901,    18.36,    11.5901,  -101.64,          0,     0.00, 1.50525E-006,   170.37,    11.5901,   -41.64,    11.5901,  -161.64,    11.5901,    78.36,          0,     0.00, 1.50805E-006,    -9.62
Line.L_CEI_MT_171988,    11.5901,   -41.64,    11.5901,  -161.64,    11.5901,    78.36,          0,     0.00, 1.51651E-006,    -9.92,    11.5901,   138.36,    11.5901,    18.36,    11.5901,  -101.64,          0,     0.00, 1.51538E-006,   170.23
Line.L_CEI_MT_171992,    11.5901,   138.36,    11.5901,    18.36,    11.5901,  -101.64,          0,     0.00, 1.51831E-006,   170.31,    11.5901,   -41.64,    11.5901,  -161.64,    11.5901,    78.36,          0,     0.00, 1.51559E-006,    -9.61
Line.L_CEI_MT_171994, 3.16684E-009,   -53.97, 1.86265E-009,   180.00, 4.39304E-009,    57.99,          0,     0.00, 2.60313E-009,    26.57, 3.0268E-009,    90.00, 1.56188E-009,    26.57, 4.165E-009,  -116.57,          0,     0.00, 4.65661E-010,   180.00
Line.L_CEI_MT_171995, 6.98492E-010,   -90.00, 2.0825E-009,    63.43, 1.91997E-009,   104.04,          0,     0.00, 3.06241E-009,    81.25, 1.62981E-009,   -90.00, 1.81847E-009,  -140.19, 3.75428E-009,   -82.87,          0,     0.00, 6.58545E-009,   -98.13
Line.L_CEI_MT_172004, 2.9451E-009,   -71.57, 4.41765E-009,  -161.57, 3.75428E-009,    97.13,          0,     0.00, 3.75428E-009,  -172.87, 3.6145E-009,   104.93, 6.58956E-009,    32.01, 9.31323E-010,     0.00,          0,     0.00, 8.94506E-009,    51.34
Line.L_CEI_MT_172005, 9.31323E-010,     0.00, 1.97563E-009,   135.00, 4.165E-009,    63.43,          0,     0.00, 5.30936E-009,    74.74, 1.49084E-009,  -128.66, 1.87714E-009,    -7.13, 9.31323E-010,   180.00,          0,     0.00, 1.39698E-009,   -90.00
Line.L_CEI_MT_13478A,    4.23005,   -41.68,    4.23005,  -161.68,    4.23005,    78.32,          0,     0.00, 1.32133E-006,   -62.03,    4.23005,   138.32,    4.23005,    18.32,    4.23005,  -101.68,          0,     0.00, 1.32206E-006,   117.77
Line.L_CEI_MT_12338A,    31.7494,   138.31,    31.7494,    18.31,    31.7494,  -101.69,          0,     0.00, 1.43609E-006,    19.84,    31.7494,   -41.69,    31.7494,  -161.69,    31.7494,    78.31,          0,     0.00, 1.43701E-006,  -160.23
Line.L_CEI_MT_14799,    2.11848,   -41.70,    2.11848,  -161.70,    2.11848,    78.30,          0,     0.00, 1.12628E-008,  -150.26,    2.11848,   138.30,    2.11848,    18.30,    2.11848,  -101.70,          0,     0.00, 1.16787E-008,    -4.57
Line.L_CEI_MT_14800,    6.88503,   -41.70,    6.88503,  -161.70,    6.88503,    78.30,          0,     0.00, 3.08226E-008,  -169.11,    6.88503,   138.30,    6.88503,    18.30,    6.88503,  -101.70,          0,     0.00, 3.46355E-008,     5.79
Line.L_CEI_MT_14801,    6.88503,   138.30,    6.88503,    18.30,    6.88503,  -101.70,          0,     0.00, 3.62536E-008,     8.49,    6.88503,   -41.70,    6.88503,  -161.70,    6.88503,    78.30,          0,     0.00, 3.28357E-008,  -173.08
Line.L_CEI_MT_14802,    4.76655,   -41.70,    4.76655,  -161.70,    4.76655,    78.30,          0,     0.00, 1.7286E-008,  -152.74,    4.76655,   138.30,    4.76655,    18.30,    4.76655,  -101.70,          0,     0.00, 1.98111E-008,    23.55
Line.L_CEI_MT_14803,    4.76655,   -41.70,    4.76655,  -161.70,    4.76655,    78.30,          0,     0.00, 2.69963E-008,  -165.00,    4.76655,   138.30,    4.76655,    18.30,    4.76655,  -101.70,          0,     0.00, 3.12236E-008,    17.35
Line.L_CEI_MT_14804,    4.76655,   -41.70,    4.76655,  -161.70,    4.76655,    78.30,          0,     0.00, 2.1891E-008,  -178.78,    4.76655,   138.30,    4.76655,    18.30,    4.76655,  -101.70,          0,     0.00, 2.37487E-008,     0.00
Line.L_CEI_MT_14805,    4.76655,   -41.70,    4.76655,  -161.70,    4.76655,    78.30,          0,     0.00, 3.09621E-008,  -167.85,    4.76655,   138.30,    4.76655,    18.30,    4.76655,  -101.70,          0,     0.00, 2.96345E-008,     8.13
Line.L_CEI_MT_14806,    1.05926,   -41.70,    1.05926,  -161.70,    1.05926,    78.30,          0,     0.00, 7.39581E-009,   151.82,    1.05926,   138.30,    1.05926,    18.30,    1.05926,  -101.70,          0,     0.00, 5.82077E-009,    16.26
Line.L_CEI_MT_14807,    1.05926,   138.30,    1.05926,    18.30,    1.05926,  -101.70,          0,     0.00, 8.76446E-009,    16.99,    1.05926,   -41.70,    1.05926,  -161.70,    1.05926,    78.30,          0,     0.00, 5.12756E-009,  -177.40
Line.L_CEI_MT_14808,    1.05926,   -41.70,    1.05926,  -161.70,    1.05926,    78.30,          0,     0.00, 2.83251E-009,   170.54,    1.05926,   138.30,    1.05926,    18.30,    1.05926,  -101.70,          0,     0.00, 5.30936E-009,    15.26
Line.L_CEI_MT_14809,     43.959,   -41.70,     43.959,  -161.70,     43.959,    78.30,          0,     0.00, 1.44011E-005,   -18.02,     43.959,   138.30,     43.959,    18.30,     43.959,  -101.70,          0,     0.00, 1.44037E-005,   161.99
Line.L_CEI_MT_14810,    1.58909,   138.30,    1.58909,    18.30,    1.58909,  -101.70,          0,     0.00, 8.89645E-009,     6.01,    1.58909,   -41.70,    1.58909,  -161.70,    1.58909,    78.30,          0,     0.00, 7.52299E-009,  -158.20
Line.L_CEI_MT_14811,    4.77218,   -41.71,    4.77218,  -161.71,    4.77218,    78.29,          0,     0.00, 4.56829E-008,   177.37,    4.77218,   138.29,    4.77218,    18.29,    4.77218,  -101.71,          0,     0.00, 4.79993E-008,     2.22
Line.L_CEI_MT_14812,    4.77218,   -41.71,    4.77218,  -161.71,    4.77218,    78.29,          0,     0.00, 3.72558E-008,  -179.28,    4.77218,   138.29,    4.77218,    18.29,    4.77218,  -101.71,          0,     0.00, 4.14445E-008,     0.32
Line.L_CEI_MT_14813,    4.77218,   -41.71,    4.77218,  -161.71,    4.77218,    78.29,          0,     0.00, 4.42899E-008,   171.23,    4.77218,   138.29,    4.77218,    18.29,    4.77218,  -101.71,          0,     0.00, 4.24161E-008,    -2.52
Line.L_CEI_MT_14814,    4.77218,   -41.71,    4.77218,  -161.71,    4.77218,    78.29,          0,     0.00, 4.33165E-008,  -178.77,    4.77218,   138.29,    4.77218,    18.29,    4.77218,  -101.71,          0,     0.00, 3.99113E-008,     7.37
Line.L_CEI_MT_14815,    4.77218,   -41.71,    4.77218,  -161.71,    4.77218,    78.29,          0,     0.00, 3.70252E-008,   173.50,    4.77218,   138.29,    4.77218,    18.29,    4.77218,  -101.71,          0,     0.00, 3.44715E-008,     1.55
Line.L_CEI_MT_14816,    4.77218,   -41.71,    4.77218,  -161.71,    4.77218,    78.29,          0,     0.00, 3.74879E-008,   173.58,    4.77218,   138.29,    4.77218,    18.29,    4.77218,  -101.71,          0,     0.00, 3.79771E-008,    -6.69
Line.L_CEI_MT_14817,    4.77218,   -41.71,    4.77218,  -161.71,    4.77218,    78.29,          0,     0.00, 3.25996E-008,  -179.18,    4.77218,   138.29,    4.77218,    18.29,    4.77218,  -101.71,          0,     0.00, 3.46855E-008,     6.55
Line.L_CEI_MT_14818,    4.77218,   -41.71,    4.77218,  -161.71,    4.77218,    78.29,          0,     0.00, 2.9933E-008,  -174.64,    4.77218,   138.29,    4.77218,    18.29,    4.77218,  -101.71,          0,     0.00, 3.1221E-008,     2.14
Line.L_CEI_MT_14819,    4.77218,   -41.71,    4.77218,  -161.71,    4.77218,    78.29,          0,     0.00, 2.98469E-008,   176.87,    4.77218,   138.29,    4.77218,    18.29,    4.77218,  -101.71,          0,     0.00, 2.8931E-008,    -3.69
Line.L_CEI_MT_14820,    4.77218,   -41.71,    4.77218,  -161.71,    4.77218,    78.29,          0,     0.00, 2.9308E-008,  -165.74,    4.77218,   138.29,    4.77218,    18.29,    4.77218,  -101.71,          0,     0.00, 2.8133E-008,    12.43
Line.L_CEI_MT_14821,    4.77218,   -41.71,    4.77218,  -161.71,    4.77218,    78.29,          0,     0.00, 2.25317E-008,  -166.25,    4.77218,   138.29,    4.77218,    18.29,    4.77218,  -101.71,          0,     0.00, 2.13647E-008,    16.46
Line.L_CEI_MT_14822,    4.77218,   -41.71,    4.77218,  -161.71,    4.77218,    78.29,          0,     0.00, 2.33249E-008,  -176.57,    4.77218,   138.29,    4.77218,    18.29,    4.77218,  -101.71,          0,     0.00, 2.47338E-008,    -3.78
Line.L_CEI_MT_14823,    4.77218,   -41.71,    4.77218,  -161.71,    4.77218,    78.29,          0,     0.00, 2.34882E-008,  -162.10,    4.77218,   138.29,    4.77218,    18.29,    4.77218,  -101.71,          0,     0.00, 2.28364E-008,    16.59
Line.L_CEI_MT_14824,    4.77218,   -41.71,    4.77218,  -161.71,    4.77218,    78.29,          0,     0.00, 3.36986E-008,  -168.85,    4.77218,   138.29,    4.77218,    18.29,    4.77218,  -101.71,          0,     0.00, 3.30915E-008,    13.84
Line.L_CEI_MT_14825,    434.692,   -41.66,    434.692,  -161.66,    434.692,    78.34,          0,     0.00, 0.000157303,   -19.96,    434.692,   138.34,    434.692,    18.34,    434.692,  -101.66,          0,     0.00, 0.000157305,   160.05
Line.L_CEI_MT_14826,    434.692,   -41.66,    434.692,  -161.66,    434.692,    78.34,          0,     0.00, 0.000157303,   -19.95,    434.692,   138.34,    434.692,    18.34,    434.692,  -101.66,          0,     0.00, 0.000157304,   160.05
Line.L_CEI_MT_14827,    2.11579,   -41.69,    2.11579,  -161.69,    2.11579,    78.31,          0,     0.00, 1.68734E-008,  -152.02,    2.11579,   138.31,    2.11579,    18.31,    2.11579,  -101.69,          0,     0.00, 1.38627E-008,    29.15
Line.L_CEI_MT_14828,    2.11579,   138.31,    2.11579,    18.31,    2.11579,  -101.69,          0,     0.00, 1.40395E-008,    -5.71,    2.11579,   -41.69,    2.11579,  -161.69,    2.11579,    78.31,          0,     0.00, 1.37449E-008,  -169.26
Line.L_CEI_MT_14829,    221.231,   -41.65,    221.231,  -161.65,    221.231,    78.35,          0,     0.00, 7.71595E-005,   -17.22,    221.231,   138.35,    221.231,    18.35,    221.231,  -101.65,          0,     0.00, 7.71599E-005,   162.78
Line.L_CEI_MT_14830,    1.58831,   -41.70,    1.58831,  -161.70,    1.58831,    78.30,          0,     0.00, 1.3892E-008,  -140.44,    1.58831,   138.30,    1.58831,    18.30,    1.58831,  -101.70,          0,     0.00, 1.2812E-008,    19.09
Line.L_CEI_MT_14831,    272.036,   138.34,    272.036,    18.34,    272.036,  -101.66,          0,     0.00, 0.000103715,   162.10,    272.036,   -41.66,    272.036,  -161.66,    272.036,    78.34,          0,     0.00, 0.000103716,   -17.90
Line.L_CEI_MT_14832,    273.625,   138.34,    273.624,    18.34,    273.624,  -101.66,          0,     0.00, 0.000103701,   162.09,    273.625,   -41.66,    273.624,  -161.66,    273.624,    78.34,          0,     0.00, 0.000103703,   -17.91
Line.L_CEI_MT_14833,    272.036,   138.34,    272.036,    18.34,    272.036,  -101.66,          0,     0.00, 0.000103717,   162.10,    272.036,   -41.66,    272.036,  -161.66,    272.036,    78.34,          0,     0.00, 0.000103715,   -17.90
Line.L_CEI_MT_14834,    272.036,   138.34,    272.036,    18.34,    272.036,  -101.66,          0,     0.00, 0.000103716,   162.10,    272.036,   -41.66,    272.036,  -161.66,    272.036,    78.34,          0,     0.00, 0.000103713,   -17.90
Line.L_CEI_MT_14835,    272.036,   138.34,    272.036,    18.34,    272.036,  -101.66,          0,     0.00, 0.000103715,   162.10,    272.036,   -41.66,    272.036,  -161.66,    272.036,    78.34,          0,     0.00, 0.000103718,   -17.90
Line.L_CEI_MT_14836,    272.036,   138.34,    272.036,    18.34,    272.036,  -101.66,          0,     0.00, 0.000103717,   162.10,    272.036,   -41.66,    272.036,  -161.66,    272.036,    78.34,          0,     0.00, 0.000103718,   -17.90
Line.L_CEI_MT_14837,    264.096,   138.34,    264.096,    18.34,    264.096,  -101.66,          0,     0.00, 0.000103464,   162.15,    264.096,   -41.66,    264.096,  -161.66,    264.096,    78.34,          0,     0.00, 0.000103461,   -17.85
Line.L_CEI_MT_14838,    7.41071,   138.30,    7.41071,    18.30,    7.41071,  -101.70,          0,     0.00, 3.74973E-006,   154.27,    7.41071,   -41.70,    7.41071,  -161.70,    7.41071,    78.30,          0,     0.00, 3.74872E-006,   -25.70
Line.L_CEI_MT_14839,    7.41071,   138.30,    7.41071,    18.30,    7.41071,  -101.70,          0,     0.00, 3.75609E-006,   154.38,    7.41071,   -41.70,    7.41071,  -161.70,    7.41071,    78.30,          0,     0.00, 3.75645E-006,   -25.58
Line.L_CEI_MT_14840,    7.41071,   138.30,    7.41071,    18.30,    7.41071,  -101.70,          0,     0.00, 1.46563E-006,   146.61,    7.41071,   -41.70,    7.41071,  -161.70,    7.41071,    78.30,          0,     0.00, 1.46731E-006,   -33.39
Line.L_CEI_MT_14841,    7.41071,   138.30,    7.41071,    18.30,    7.41071,  -101.70,          0,     0.00, 1.46384E-006,   146.72,    7.41071,   -41.70,    7.41071,  -161.70,    7.41071,    78.30,          0,     0.00, 1.46615E-006,   -33.35
Line.L_CEI_MT_14842,    7.41071,   138.30,    7.41071,    18.30,    7.41071,  -101.70,          0,     0.00, 1.46976E-006,   146.63,    7.41071,   -41.70,    7.41071,  -161.70,    7.41071,    78.30,          0,     0.00, 1.46964E-006,   -33.33
Line.L_CEI_MT_14843,    7.41071,   138.30,    7.41071,    18.30,    7.41071,  -101.70,          0,     0.00, 1.46349E-006,   146.91,    7.41071,   -41.70,    7.41071,  -161.70,    7.41071,    78.30,          0,     0.00, 1.46282E-006,   -33.19
Line.L_CEI_MT_14844,    4.76403,   -41.70,    4.76403,  -161.70,    4.76403,    78.30,          0,     0.00, 1.46213E-006,   -32.91,    4.76403,   138.30,    4.76403,    18.30,    4.76403,  -101.70,          0,     0.00, 1.46253E-006,   147.13
Line.L_CEI_MT_14845,    4.76403,   138.30,    4.76403,    18.30,    4.76403,  -101.70,          0,     0.00, 1.46443E-006,   147.02,    4.76403,   -41.70,    4.76403,  -161.70,    4.76403,    78.30,          0,     0.00, 1.46614E-006,   -32.89
Line.L_CEI_MT_14846,    4.76403,   -41.70,    4.76403,  -161.70,    4.76403,    78.30,          0,     0.00, 3.07478E-008,   178.26,    4.76403,   138.30,    4.76403,    18.30,    4.76403,  -101.70,          0,     0.00, 3.2134E-008,     0.83
Line.L_CEI_MT_14847,    7.94032,   138.30,    7.94032,    18.30,    7.94032,  -101.70,          0,     0.00, 5.18748E-008,    11.92,    7.94032,   -41.70,    7.94032,  -161.70,    7.94032,    78.30,          0,     0.00, 5.40669E-008,  -172.08
Line.L_CEI_MT_14848,    2.64668,   138.30,    2.64668,    18.30,    2.64668,  -101.70,          0,     0.00, 1.16508E-008,    -2.29,    2.64668,   -41.70,    2.64668,  -161.70,    2.64668,    78.30,          0,     0.00, 9.04151E-009,  -145.49
Line.L_CEI_MT_14849,    2.64668,   138.30,    2.64668,    18.30,    2.64668,  -101.70,          0,     0.00, 1.09604E-008,    12.26,    2.64668,   -41.70,    2.64668,  -161.70,    2.64668,    78.30,          0,     0.00, 8.85063E-009,  -153.43
Line.L_CEI_MT_14850,    2.64668,   138.30,    2.64668,    18.30,    2.64668,  -101.70,          0,     0.00, 1.51608E-008,   -10.62,    2.64668,   -41.70,    2.64668,  -161.70,    2.64668,    78.30,          0,     0.00, 1.75536E-008,   158.20
Line.L_CEI_MT_14851,    2.64668,   138.30,    2.64668,    18.30,    2.64668,  -101.70,          0,     0.00, 1.67848E-008,    23.72,    2.64668,   -41.70,    2.64668,  -161.70,    2.64668,    78.30,          0,     0.00, 1.62648E-008,  -166.76
Line.L_CEI_MT_14852, 8.77666E-007,    23.15, 1.43929E-006,   -37.23, 9.98365E-007,  -102.14,          0,     0.00, 2.3007E-006,   -40.75, 8.78525E-007,  -156.64, 1.43993E-006,   142.86, 1.00038E-006,    77.83,          0,     0.00, 2.29923E-006,   139.31
Line.L_CEI_MT_14853, 8.75532E-007,    22.98, 1.44016E-006,   -37.12, 9.98072E-007,  -102.06,          0,     0.00, 2.30388E-006,   -40.73, 8.75587E-007,  -156.86, 1.44063E-006,   142.92, 9.98463E-007,    77.83,          0,     0.00, 2.30065E-006,   139.29
Line.L_CEI_MT_14854, 1.53342E-006,  -171.76, 2.5443E-006,   144.77, 1.19197E-006,    60.87,          0,     0.00, 3.78608E-006,   142.80, 1.53362E-006,     8.17, 2.54315E-006,   -35.25, 1.19314E-006,  -119.05,          0,     0.00, 3.78833E-006,   -37.25
Line.L_CEI_MT_14855,    2.12215,   138.28,    2.12215,    18.28,    2.12215,  -101.72,          0,     0.00, 9.82314E-009,     5.44,    2.12215,   -41.72,    2.12215,  -161.72,    2.12215,    78.28,          0,     0.00, 9.59985E-009,   165.96
Line.L_CEI_MT_14856,    2.12215,   -41.72,    2.12215,  -161.72,    2.12215,    78.28,          0,     0.00, 1.29885E-008,   165.47,    2.12215,   138.28,    2.12215,    18.28,    2.12215,  -101.72,          0,     0.00, 1.27186E-008,   -23.75
Line.L_CEI_MT_14857,    2.12215,   -41.72,    2.12215,  -161.72,    2.12215,    78.28,          0,     0.00, 1.44655E-008,  -176.31,    2.12215,   138.28,    2.12215,    18.28,    2.12215,  -101.72,          0,     0.00, 9.35968E-009,    -5.71
Line.L_CEI_MT_14858,    2.12215,   -41.72,    2.12215,  -161.72,    2.12215,    78.28,          0,     0.00, 1.5168E-008,  -162.12,    2.12215,   138.28,    2.12215,    18.28,    2.12215,  -101.72,          0,     0.00, 1.16415E-008,    16.26
Line.L_CEI_MT_14859,    2.12215,   -41.72,    2.12215,  -161.72,    2.12215,    78.28,          0,     0.00, 1.31131E-008,  -163.50,    2.12215,   138.28,    2.12215,    18.28,    2.12215,  -101.72,          0,     0.00, 1.15198E-008,    14.04
Line.L_CEI_MT_14860,    7.96556,   -41.73,    7.96556,  -161.73,    7.96556,    78.27,          0,     0.00, 4.63163E-008,  -170.16,    7.96556,   138.27,    7.96556,    18.27,    7.96556,  -101.73,          0,     0.00, 4.83414E-008,    13.37
Line.L_CEI_MT_14861,    2.12448,   -41.73,    2.12448,  -161.73,    2.12448,    78.27,          0,     0.00, 1.2575E-008,   178.94,    2.12448,   138.27,    2.12448,    18.27,    2.12448,  -101.73,          0,     0.00, 1.26073E-008,     4.24
Line.L_CEI_MT_14862,    2.12448,   138.27,    2.12448,    18.27,    2.12448,  -101.73,          0,     0.00, 8.47516E-009,    52.82,    2.12448,   -41.73,    2.12448,  -161.73,    2.12448,    78.27,          0,     0.00, 1.12628E-008,  -150.26
Line.L_CEI_MT_14863,    2.12448,   138.27,    2.12448,    18.27,    2.12448,  -101.73,          0,     0.00, 7.95722E-009,   -20.56,    2.12448,   -41.73,    2.12448,  -161.73,    2.12448,    78.27,          0,     0.00, 7.67988E-009,   165.96
Line.L_CEI_MT_14864,    2.12448,   -41.73,    2.12448,  -161.73,    2.12448,    78.27,          0,     0.00, 1.00522E-008,  -166.61,    2.12448,   138.27,    2.12448,    18.27,    2.12448,  -101.73,          0,     0.00, 9.49766E-009,    11.31
Line.L_CEI_MT_14865,    79.3767,   138.31,    79.3767,    18.31,    79.3767,  -101.69,          0,     0.00, 1.38955E-006,    73.49,    79.3767,   -41.69,    79.3767,  -161.69,    79.3767,    78.31,          0,     0.00, 1.3892E-006,  -106.39
Line.L_CEI_MT_14866,    79.3767,   -41.69,    79.3767,  -161.69,    79.3767,    78.31,          0,     0.00, 1.39423E-006,  -106.21,    79.3767,   138.31,    79.3767,    18.31,    79.3767,  -101.69,          0,     0.00, 1.39751E-006,    73.67
Line.L_CEI_MT_14867,    23.7746,   -41.67,    23.7746,  -161.67,    23.7746,    78.33,          0,     0.00, 1.69727E-007,  -170.05,    23.7746,   138.33,    23.7746,    18.33,    23.7746,  -101.67,          0,     0.00, 1.69309E-007,    10.06
Line.L_CEI_MT_14868,    79.3767,   138.31,    79.3767,    18.31,    79.3767,  -101.69,          0,     0.00, 2.51754E-006,   143.59,    79.3767,   -41.69,    79.3767,  -161.69,    79.3767,    78.31,          0,     0.00, 2.51949E-006,   -36.42
Line.L_CEI_MT_14870,    1.05851,   138.31,    1.05851,    18.31,    1.05851,  -101.69,          0,     0.00, 6.87541E-009,   -28.30,    1.05851,   -41.69,    1.05851,  -161.69,    1.05851,    78.31,          0,     0.00, 9.49766E-009,   168.69
Line.L_CEI_MT_14871,    1.58501,   -41.67,    1.58501,  -161.67,    1.58501,    78.33,          0,     0.00, 9.26947E-009,  -154.72,    1.58501,   138.33,    1.58501,    18.33,    1.58501,  -101.67,          0,     0.00, 1.04774E-008,    36.87
Line.L_CEI_MT_14872,       1.58,   -41.64,       1.58,  -161.64,       1.58,    78.36,          0,     0.00, 1.35543E-008,   175.07,       1.58,   138.36,       1.58,    18.36,       1.58,  -101.64,          0,     0.00, 1.39776E-008,     1.91
Line.L_CEI_MT_14873,       1.58,   -41.64,       1.58,  -161.64,       1.58,    78.36,          0,     0.00, 8.85981E-009,   176.99,       1.58,   138.36,       1.58,    18.36,       1.58,  -101.64,          0,     0.00, 1.03079E-008,   -18.43
Line.L_CEI_MT_14874,     7.9001,   -41.64,     7.9001,  -161.64,     7.9001,    78.36,          0,     0.00, 1.43338E-006,   -34.20,     7.9001,   138.36,     7.9001,    18.36,     7.9001,  -101.64,          0,     0.00, 1.4317E-006,   145.80
Line.L_CEI_MT_14875,     7.9001,   -41.64,     7.9001,  -161.64,     7.9001,    78.36,          0,     0.00, 1.43707E-006,   -33.82,     7.9001,   138.36,     7.9001,    18.36,     7.9001,  -101.64,          0,     0.00, 1.43745E-006,   146.23
Line.L_CEI_MT_14876,     7.9001,   -41.64,     7.9001,  -161.64,     7.9001,    78.36,          0,     0.00, 1.43371E-006,   -33.75,     7.9001,   138.36,     7.9001,    18.36,     7.9001,  -101.64,          0,     0.00, 1.43603E-006,   146.35
Line.L_CEI_MT_14877,     7.9001,   138.36,     7.9001,    18.36,     7.9001,  -101.64,          0,     0.00, 1.44173E-006,   146.57,     7.9001,   -41.64,     7.9001,  -161.64,     7.9001,    78.36,          0,     0.00, 1.44146E-006,   -33.51
Line.L_CEI_MT_14878,     7.9001,   -41.64,     7.9001,  -161.64,     7.9001,    78.36,          0,     0.00, 7.18327E-008,  -166.50,     7.9001,   138.36,     7.9001,    18.36,     7.9001,  -101.64,          0,     0.00, 6.95973E-008,    10.41
Line.L_CEI_MT_14879,     7.9001,   138.36,     7.9001,    18.36,     7.9001,  -101.64,          0,     0.00, 6.3234E-008,     9.32,     7.9001,   -41.64,     7.9001,  -161.64,     7.9001,    78.36,          0,     0.00, 6.25617E-008,  -171.87
Line.L_CEI_MT_14880,    2.10672,   138.36,    2.10672,    18.36,    2.10672,  -101.64,          0,     0.00, 1.39776E-008,     1.91,    2.10672,   -41.64,    2.10672,  -161.64,    2.10672,    78.36,          0,     0.00, 1.82813E-008,  -173.42
Line.L_CEI_MT_14881, 9.58007E-009,  -115.94, 7.91967E-009,   178.32, 9.31323E-009,    53.13,          0,     0.00, 6.58545E-009,  -171.87, 9.37125E-009,    63.43, 6.12482E-009,     8.75, 9.04151E-009,  -124.51,          0,     0.00, 5.45043E-009,    19.98
Line.L_CEI_MT_14882, 6.66725E-009,   -77.91, 6.12482E-009,  -171.25, 7.27386E-009,    50.19,          0,     0.00, 1.86265E-009,   -90.00, 6.2127E-009,   102.99, 5.10637E-009,    24.23, 5.6073E-009,  -138.37,          0,     0.00, 4.52075E-009,   101.89
Line.L_CEI_MT_14883, 4.19095E-009,   -90.00, 2.83251E-009,   170.54, 4.165E-009,    63.43,          0,     0.00, 9.31323E-010,   180.00, 3.95812E-009,    90.00, 2.43082E-009,    16.70, 4.165E-009,  -116.57,          0,     0.00, 1.04125E-009,    63.43
Line.L_CEI_MT_14884, 6.58545E-010,   -45.00, 1.39698E-009,     0.00, 1.86265E-009,    90.00,          0,     0.00, 2.32831E-009,    36.87, 1.41625E-009,   170.54, 1.04125E-009,   153.43, 1.86265E-009,   -90.00,          0,     0.00, 2.60313E-009,  -153.43
Line.L_CEI_MT_14886,    1.05603,   -41.67,    1.05603,  -161.67,    1.05603,    78.33,          0,     0.00, 1.44374E-008,   179.08,    1.05603,   138.33,    1.05603,    18.33,    1.05603,  -101.67,          0,     0.00, 1.49084E-008,     1.79
Line.L_CEI_MT_14887,    1.05603,   -41.67,    1.05603,  -161.67,    1.05603,    78.33,          0,     0.00, 9.87817E-009,   171.87,    1.05603,   138.33,    1.05603,    18.33,    1.05603,  -101.67,          0,     0.00, 1.09604E-008,   -12.26
Line.L_CEI_MT_14888,    1.05603,   -41.67,    1.05603,  -161.67,    1.05603,    78.33,          0,     0.00, 1.38549E-008,  -155.16,    1.05603,   138.33,    1.05603,    18.33,    1.05603,  -101.67,          0,     0.00, 1.19358E-008,    20.56
Line.L_CEI_MT_14889,     7.9048,   138.35,     7.9048,    18.35,     7.9048,  -101.65,          0,     0.00, 7.66462E-008,     4.88,     7.9048,   -41.65,     7.9048,  -161.65,     7.9048,    78.35,          0,     0.00, 7.58513E-008,  -174.01
Line.L_CEI_MT_14890, 1.81847E-009,  -140.19, 2.51845E-009,   123.69, 1.91997E-009,    75.96,          0,     0.00, 3.63693E-009,   129.81, 1.97563E-009,   -45.00, 2.32831E-009,   -53.13, 4.65661E-010,   180.00,          0,     0.00, 4.00577E-009,   -54.46
Line.L_CEI_MT_14891,    345.002,   138.36,    345.002,    18.36,    345.002,  -101.64,          0,     0.00, 0.000103129,   168.90,    345.002,   -41.64,    345.002,  -161.64,    345.002,    78.36,          0,     0.00, 0.00010313,   -11.10
Line.L_CEI_MT_14892,    352.907,   -41.64,    352.907,  -161.64,    352.907,    78.36,          0,     0.00, 0.000103064,   -11.11,    352.907,   138.36,    352.907,    18.36,    352.907,  -101.64,          0,     0.00, 0.000103063,   168.89
Line.L_CEI_MT_14893,    4.74563,   -41.65,    4.74563,  -161.65,    4.74563,    78.35,          0,     0.00, 4.52075E-008,  -177.64,    4.74563,   138.35,    4.74563,    18.35,    4.74563,  -101.65,          0,     0.00, 4.61216E-008,     1.74
Line.L_CEI_MT_14894,    4.74563,   -41.65,    4.74563,  -161.65,    4.74563,    78.35,          0,     0.00, 3.82013E-008,  -170.88,    4.74563,   138.35,    4.74563,    18.35,    4.74563,  -101.65,          0,     0.00, 3.78592E-008,     4.94
Line.L_CEI_MT_14895,    4.74563,   -41.65,    4.74563,  -161.65,    4.74563,    78.35,          0,     0.00, 3.86611E-008,  -178.62,    4.74563,   138.35,    4.74563,    18.35,    4.74563,  -101.65,          0,     0.00, 3.72645E-008,     1.43
Line.L_CEI_MT_14896,    4.74563,   -41.65,    4.74563,  -161.65,    4.74563,    78.35,          0,     0.00, 4.2947E-008,   170.64,    4.74563,   138.35,    4.74563,    18.35,    4.74563,  -101.65,          0,     0.00, 4.11076E-008,    -4.55
Line.L_CEI_MT_14897,    4.74563,   -41.65,    4.74563,  -161.65,    4.74563,    78.35,          0,     0.00, 3.49254E-008,   179.62,    4.74563,   138.35,    4.74563,    18.35,    4.74563,  -101.65,          0,     0.00, 3.4466E-008,     1.16
Line.L_CEI_MT_14898,    4.74563,   -41.65,    4.74563,  -161.65,    4.74563,    78.35,          0,     0.00, 3.16787E-008,  -178.32,    4.74563,   138.35,    4.74563,    18.35,    4.74563,  -101.65,          0,     0.00, 3.07478E-008,    -1.74
Line.L_CEI_MT_14899,    4.74563,   -41.65,    4.74563,  -161.65,    4.74563,    78.35,          0,     0.00, 2.93634E-008,  -169.49,    4.74563,   138.35,    4.74563,    18.35,    4.74563,  -101.65,          0,     0.00, 2.7784E-008,    13.57
Line.L_CEI_MT_14900,    4.74563,   -41.65,    4.74563,  -161.65,    4.74563,    78.35,          0,     0.00, 3.40729E-008,  -176.08,    4.74563,   138.35,    4.74563,    18.35,    4.74563,  -101.65,          0,     0.00, 3.32222E-008,     5.63
Line.L_CEI_MT_14901,    4.74563,   -41.65,    4.74563,  -161.65,    4.74563,    78.35,          0,     0.00, 3.30062E-008,  -163.61,    4.74563,   138.35,    4.74563,    18.35,    4.74563,  -101.65,          0,     0.00, 3.6408E-008,    20.98
Line.L_CEI_MT_14902,    4.74563,   -41.65,    4.74563,  -161.65,    4.74563,    78.35,          0,     0.00, 3.55858E-008,  -173.99,    4.74563,   138.35,    4.74563,    18.35,    4.74563,  -101.65,          0,     0.00, 3.82098E-008,     2.10
Line.L_CEI_MT_19749A,    2.64615,   -41.69,    2.64615,  -161.69,    2.64615,    78.31,          0,     0.00, 9.31323E-009,   180.00,    2.64615,   138.31,    2.64615,    18.31,    2.64615,  -101.69,          0,     0.00, 1.2143E-008,    -4.40
Line.L_CEI_MT_19759A,    2.64263,   -41.68,    2.64263,  -161.68,    2.64263,    78.32,          0,     0.00, 1.39543E-008,  -154.29,    2.64263,   138.32,    2.64263,    18.32,    2.64263,  -101.68,          0,     0.00, 1.66925E-008,    22.99
Line.L_CEI_MT_5182,    4.75749,   138.32,    4.75749,    18.32,    4.75749,  -101.68,          0,     0.00, 3.4022E-008,    -2.35,    4.75749,   -41.68,    4.75749,  -161.68,    4.75749,    78.32,          0,     0.00, 3.54668E-008,  -176.24
Line.L_CEI_MT_5183,    172.216,   138.35,    172.216,    18.35,    172.216,  -101.65,          0,     0.00, 6.40453E-005,   162.95,    172.216,   -41.65,    172.216,  -161.65,    172.216,    78.35,          0,     0.00, 6.40458E-005,   -17.05
Line.L_CEI_MT_5187,    152.383,   138.33,    152.383,    18.33,    152.383,  -101.67,          0,     0.00, 9.55031E-005,   160.71,    152.383,   -41.67,    152.383,  -161.67,    152.383,    78.33,          0,     0.00, 9.55048E-005,   -19.29
Line.L_CEI_MT_5188,    152.383,   138.33,    152.383,    18.33,    152.383,  -101.67,          0,     0.00, 9.55079E-005,   160.71,    152.383,   -41.67,    152.383,  -161.67,    152.383,    78.33,          0,     0.00, 9.55064E-005,   -19.29
Line.L_CEI_MT_5189,    152.383,   138.33,    152.383,    18.33,    152.383,  -101.67,          0,     0.00, 9.5502E-005,   160.70,    152.383,   -41.67,    152.383,  -161.67,    152.383,    78.33,          0,     0.00, 9.55018E-005,   -19.29
Line.L_CEI_MT_519,    285.538,   138.34,    285.538,    18.34,    285.538,  -101.66,          0,     0.00, 0.000103621,   162.08,    285.538,   -41.66,    285.538,  -161.66,    285.538,    78.34,          0,     0.00, 0.000103624,   -17.92
Line.L_CEI_MT_5190,    152.383,   138.33,    152.383,    18.33,    152.383,  -101.67,          0,     0.00, 9.55034E-005,   160.71,    152.383,   -41.67,    152.383,  -161.67,    152.383,    78.33,          0,     0.00, 9.55027E-005,   -19.29
Line.L_CEI_MT_5191,    152.383,   138.33,    152.383,    18.33,    152.383,  -101.67,          0,     0.00, 9.54975E-005,   160.71,    152.383,   -41.67,    152.383,  -161.67,    152.383,    78.33,          0,     0.00, 9.54957E-005,   -19.29
Line.L_CEI_MT_5192,    152.383,   138.33,    152.383,    18.33,    152.383,  -101.67,          0,     0.00, 9.54967E-005,   160.71,    152.383,   -41.67,    152.383,  -161.67,    152.383,    78.33,          0,     0.00, 9.54961E-005,   -19.29
Line.L_CEI_MT_5193,    152.383,   138.33,    152.383,    18.33,    152.383,  -101.67,          0,     0.00, 9.54963E-005,   160.71,    152.383,   -41.67,    152.383,  -161.67,    152.383,    78.33,          0,     0.00, 9.54968E-005,   -19.29
Line.L_CEI_MT_5194,    152.383,   138.33,    152.383,    18.33,    152.383,  -101.67,          0,     0.00, 9.5497E-005,   160.71,    152.383,   -41.67,    152.383,  -161.67,    152.383,    78.33,          0,     0.00, 9.5497E-005,   -19.29
Line.L_CEI_MT_5195,    1.58549,   138.32,    1.58549,    18.32,    1.58549,  -101.68,          0,     0.00, 2.9658E-006,   147.98,    1.58549,   -41.68,    1.58549,  -161.68,    1.58549,    78.32,          0,     0.00, 2.96664E-006,   -32.06
Line.L_CEI_MT_5196,    1.58549,   138.32,    1.58549,    18.32,    1.58549,  -101.68,          0,     0.00, 2.97188E-006,   147.81,    1.58549,   -41.68,    1.58549,  -161.68,    1.58549,    78.32,          0,     0.00, 2.97509E-006,   -32.21
Line.L_CEI_MT_5197,    1.58549,   138.32,    1.58549,    18.32,    1.58549,  -101.68,          0,     0.00, 2.96735E-006,   147.90,    1.58549,   -41.68,    1.58549,  -161.68,    1.58549,    78.32,          0,     0.00, 2.96847E-006,   -32.14
Line.L_CEI_MT_5198,    1.58549,   138.32,    1.58549,    18.32,    1.58549,  -101.68,          0,     0.00, 2.96851E-006,   147.90,    1.58549,   -41.68,    1.58549,  -161.68,    1.58549,    78.32,          0,     0.00, 2.96813E-006,   -32.19
Line.L_CEI_MT_5199,    1.58549,   138.32,    1.58549,    18.32,    1.58549,  -101.68,          0,     0.00, 2.97234E-006,   147.76,    1.58549,   -41.68,    1.58549,  -161.68,    1.58549,    78.32,          0,     0.00, 2.97401E-006,   -32.24
Line.L_CEI_MT_520,    285.538,   138.34,    285.538,    18.34,    285.538,  -101.66,          0,     0.00, 0.000103626,   162.07,    285.538,   -41.66,    285.538,  -161.66,    285.538,    78.34,          0,     0.00, 0.000103627,   -17.93
Line.L_CEI_MT_5200,    1.58549,   138.32,    1.58549,    18.32,    1.58549,  -101.68,          0,     0.00, 2.973E-006,   147.77,    1.58549,   -41.68,    1.58549,  -161.68,    1.58549,    78.32,          0,     0.00, 2.97592E-006,   -32.26
Line.L_CEI_MT_5201,    1.58549,   -41.68,    1.58549,  -161.68,    1.58549,    78.32,          0,     0.00, 2.97445E-006,   -32.20,    1.58549,   138.32,    1.58549,    18.32,    1.58549,  -101.68,          0,     0.00, 2.97089E-006,   147.84
Line.L_CEI_MT_5202,    1.58549,   138.32,    1.58549,    18.32,    1.58549,  -101.68,          0,     0.00, 2.96821E-006,   147.96,    1.58549,   -41.68,    1.58549,  -161.68,    1.58549,    78.32,          0,     0.00, 2.97029E-006,   -32.04
Line.L_CEI_MT_5203,    1.58549,   138.32,    1.58549,    18.32,    1.58549,  -101.68,          0,     0.00, 2.97214E-006,   147.99,    1.58549,   -41.68,    1.58549,  -161.68,    1.58549,    78.32,          0,     0.00, 2.9714E-006,   -31.99
Line.L_CEI_MT_5204,    1.58549,   138.32,    1.58549,    18.32,    1.58549,  -101.68,          0,     0.00, 2.9708E-006,   148.20,    1.58549,   -41.68,    1.58549,  -161.68,    1.58549,    78.32,          0,     0.00, 2.97395E-006,   -31.85
Line.L_CEI_MT_5205,    1.58549,   138.32,    1.58549,    18.32,    1.58549,  -101.68,          0,     0.00, 1.48894E-006,   147.95,    1.58549,   -41.68,    1.58549,  -161.68,    1.58549,    78.32,          0,     0.00, 1.48618E-006,   -32.12
Line.L_CEI_MT_5206,    1.58549,   138.32,    1.58549,    18.32,    1.58549,  -101.68,          0,     0.00, 1.48243E-006,   148.04,    1.58549,   -41.68,    1.58549,  -161.68,    1.58549,    78.32,          0,     0.00, 1.48238E-006,   -32.02
Line.L_CEI_MT_5207,    1.58549,   138.32,    1.58549,    18.32,    1.58549,  -101.68,          0,     0.00, 1.48525E-006,   147.83,    1.58549,   -41.68,    1.58549,  -161.68,    1.58549,    78.32,          0,     0.00, 1.48896E-006,   -32.22
Line.L_CEI_MT_5208,    1.58549,   138.32,    1.58549,    18.32,    1.58549,  -101.68,          0,     0.00, 1.4833E-006,   147.82,    1.58549,   -41.68,    1.58549,  -161.68,    1.58549,    78.32,          0,     0.00, 1.4822E-006,   -32.28
Line.L_CEI_MT_5209,    1.58549,   138.32,    1.58549,    18.32,    1.58549,  -101.68,          0,     0.00, 1.47725E-006,   148.02,    1.58549,   -41.68,    1.58549,  -161.68,    1.58549,    78.32,          0,     0.00, 1.47942E-006,   -32.01
Line.L_CEI_MT_521,    285.538,   138.34,    285.538,    18.34,    285.538,  -101.66,          0,     0.00, 0.000103617,   162.07,    285.538,   -41.66,    285.538,  -161.66,    285.538,    78.34,          0,     0.00, 0.000103619,   -17.93
Line.L_CEI_MT_5210,    1.58549,   -41.68,    1.58549,  -161.68,    1.58549,    78.32,          0,     0.00, 1.099E-008,  -143.62,    1.58549,   138.32,    1.58549,    18.32,    1.58549,  -101.68,          0,     0.00, 1.19358E-008,    20.56
Line.L_CEI_MT_5211,    150.798,   -41.67,    150.797,  -161.67,    150.797,    78.33,          0,     0.00, 9.20975E-005,   -19.29,    150.798,   138.33,    150.797,    18.33,    150.797,  -101.67,          0,     0.00, 9.20952E-005,   160.70
...
Line.SW_FT3432, 8.5963E-007,   146.31, 2.15897E-006,     6.34, 9.53674E-007,   180.00,          0,     0.00, 8.5963E-007,    56.31, 8.5963E-007,    56.31, 1.73571E-006,  -164.05, 1.06624E-006,    63.43,          0,     0.00, 1.39021E-006,   120.96
Line.SW_FX2587,     4.2133,   138.36,     4.2133,    18.36,     4.2133,  -101.64,          0,     0.00, 9.61096E-007,   150.26,     4.2133,   -41.64,     4.2133,  -161.64,     4.2133,    78.36,          0,     0.00, 1.70682E-006,    24.78
Line.SW_FIC2004, 7.9968E-007,    63.43, 1.68587E-006,    -8.13, 1.19209E-006,  -126.87,          0,     0.00, 1.39531E-006,   -19.98, 9.61096E-007,   150.26, 1.73571E-006,  -164.05, 1.19209E-006,    53.13,          0,     0.00, 2.02656E-006,   151.93
Line.SW_FZ1012_DP_12240, 1.28392E-006,    68.20, 1.28392E-006,   -21.80, 8.5963E-007,   146.31,          0,     0.00, 1.52662E-006,    51.34, 8.5963E-007,  -123.69, 9.83025E-007,   165.96, 9.83025E-007,    75.96,          0,     0.00, 1.28392E-006,   158.20
Line.SW_FU0743, 7.25122E-007,   -99.46, 6.41962E-007,    21.80, 1.28392E-006,   158.20,          0,     0.00, 7.15256E-007,   180.00, 2.30231E-006,   111.25, 3.57628E-007,   180.00, 2.38419E-007,     0.00,          0,     0.00, 2.34815E-006,   113.96
Line.SW_2175_SCN, 4.91512E-007,  -104.04, 7.15256E-007,    90.00, 2.38419E-007,   180.00,          0,     0.00, 4.29815E-007,   146.31, 1.09906E-006,    40.60, 2.19811E-006,   -12.53, 1.06624E-006,  -116.57,          0,     0.00, 2.60357E-006,   -15.95
Line.SW_FP1476F,    159.891,   138.33,    159.891,    18.33,    159.891,  -101.67,          0,     0.00, 7.34899E-005,   162.83,    159.891,   -41.67,    159.891,  -161.67,    159.891,    78.33,          0,     0.00, 7.4004E-005,   -17.82
Line.SW_FIC2008,    40.7811,   138.30,     40.781,    18.30,     40.781,  -101.70,          0,     0.00, 1.24344E-005,   175.60,    40.7811,   -41.70,     40.781,  -161.70,     40.781,    78.30,          0,     0.00, 9.07871E-006,   -13.67
Line.SW_FX2678, 7.53946E-007,  -108.43, 1.06624E-006,   -26.57, 5.3312E-007,  -116.57,          0,     0.00, 1.73571E-006,   -74.05, 1.06624E-006,   116.57, 1.68587E-006,   171.87, 2.38419E-007,     0.00,          0,     0.00, 2.24924E-006,   147.99
Line.SW_FW6568,    4.23699,   138.30,    4.23699,    18.30,    4.23698,  -101.70,          0,     0.00, 2.57889E-006,   146.31,    4.23699,   -41.70,    4.23699,  -161.70,    4.23698,    78.30,          0,     0.00, 3.47143E-006,   -15.95
Line.SW_FT6092, 5.3312E-007,   -63.43, 1.85063E-006,    14.93, 8.5963E-007,  -146.31,          0,     0.00, 1.39531E-006,   -19.98, 1.28392E-006,   111.80, 7.63312E-007,  -141.34, 1.28392E-006,    21.80,          0,     0.00, 1.19804E-006,    84.29
Line.SW_FP8207, 1.2157E-006,   101.31, 1.28392E-006,   -68.20, 8.5963E-007,  -146.31,          0,     0.00, 6.7435E-007,  -135.00, 1.06624E-006,   -26.57, 1.86211E-006,   140.19, 2.38419E-007,   180.00,          0,     0.00, 1.01152E-006,   135.00
Line.SW_FP0928,          0,     0.00, 3.37175E-007,   135.00, 6.7435E-007,  -135.00,          0,     0.00, 7.53946E-007,  -161.57, 8.5963E-007,    33.69, 2.38419E-007,   -90.00, 4.76837E-007,   180.00,          0,     0.00, 3.37175E-007,    45.00
Line.SW_FU4650, 9.61096E-007,    29.74, 1.39531E-006,   -19.98, 4.76837E-007,   180.00,          0,     0.00, 1.66893E-006,     0.00, 4.91512E-007,   104.04, 2.6656E-007,    63.43, 1.3487E-006,   135.00,          0,     0.00, 1.92219E-006,   119.74
Line.SW_FP3922,    5.28524,   138.32,    5.28523,    18.32,    5.28523,  -101.68,          0,     0.00, 5.96046E-007,  -126.87,    5.28524,   -41.68,    5.28523,  -161.68,    5.28523,    78.32,          0,     0.00, 1.95518E-006,    37.57
Line.SW_FU2966, 7.25122E-007,    80.54, 2.19811E-006,   -12.53, 5.3312E-007,   -63.43,          0,     0.00, 2.51472E-006,    -5.44, 8.67857E-007,   -15.95, 8.5963E-007,   146.31, 1.06624E-006,    63.43,          0,     0.00, 1.3328E-006,    63.43
Line.SW_FIC6219,    6.84662,   138.36,    6.84662,    18.36,    6.84662,  -101.64,          0,     0.00, 8.67857E-007,   164.05,    6.84662,   -41.64,    6.84662,  -161.64,    6.84662,    78.36,          0,     0.00, 7.25122E-007,   -80.54
Line.SW_FX2155,     211.87,   -41.66,     211.87,  -161.66,     211.87,    78.34,          0,     0.00, 8.84494E-005,   -19.36,     211.87,   138.34,     211.87,    18.34,     211.87,  -101.66,          0,     0.00, 9.1005E-005,   161.04
Line.SW_FP1477,    55.1726,   138.33,    55.1726,    18.33,    55.1726,  -101.67,          0,     0.00, 3.00871E-006,  -146.31,    55.1726,   -41.67,    55.1726,  -161.67,    55.1726,    78.33,          0,     0.00, 3.83884E-006,    53.84
Line.SW_FIC3836, 1.06624E-006,  -153.43, 1.73571E-006,   -15.95, 1.19209E-006,    53.13,          0,     0.00, 1.43051E-006,     0.00, 6.7435E-007,    45.00, 1.45024E-006,   170.54, 1.28392E-006,  -158.20,          0,     0.00, 2.15897E-006,   173.66
Line.SW_FZ0734, 7.63312E-007,  -141.34, 2.14908E-006,   -19.44, 2.38419E-007,   180.00,          0,     0.00, 1.68587E-006,   -45.00, 4.29815E-007,   146.31, 8.67857E-007,  -164.05, 8.5963E-007,  -146.31,          0,     0.00, 1.96605E-006,  -165.96
Line.SW_FIC4166,    10.0068,   138.36,    10.0068,    18.36,    10.0068,  -101.64,          0,     0.00, 8.67857E-007,   164.05,    10.0068,   -41.64,    10.0068,  -161.64,    10.0068,    78.36,          0,     0.00, 2.02656E-006,   -28.07
Line.SW_FP7913, 7.9968E-007,    63.43, 1.43547E-006,   -41.63, 1.50789E-006,  -108.43,          0,     0.00, 1.92219E-006,   -60.26, 6.41962E-007,   -21.80, 1.19209E-007,     0.00, 9.53674E-007,   180.00,          0,     0.00, 3.37175E-007,  -135.00
Line.SW_FX3717, 1.19209E-006,   180.00, 1.92219E-006,    -7.13, 1.71926E-006,   -56.31,          0,     0.00, 2.36022E-006,   -45.00, 9.53674E-007,     0.00, 1.68587E-006,  -171.87, 9.53674E-007,   180.00,          0,     0.00, 1.68587E-006,  -171.87
Line.SW_FP4175_DP_21647, 1.06624E-006,   -26.57, 6.7435E-007,   -45.00,          0,     0.00,          0,     0.00, 1.71926E-006,   -33.69, 1.19209E-006,   126.87, 5.3312E-007,  -116.57, 9.53674E-007,    90.00,          0,     0.00, 1.71926E-006,   123.69
Line.SW_FW7439, 1.39021E-006,   -30.96, 5.96046E-007,    53.13, 1.19209E-006,   180.00,          0,     0.00, 4.29815E-007,   -33.69, 2.05095E-006,   144.46, 7.25122E-007,   -80.54, 2.38419E-007,     0.00,          0,     0.00, 1.39531E-006,   160.02
Line.SW_FW6456,    152.383,   138.33,    152.383,    18.33,    152.383,  -101.67,          0,     0.00, 9.43211E-005,   159.89,    152.383,   -41.67,    152.383,  -161.67,    152.383,    78.33,          0,     0.00, 9.41428E-005,   -19.38
Line.SW_FX4290, 7.63312E-007,  -141.34, 3.01814E-006,    -9.09, 1.06624E-006,   116.57,          0,     0.00, 1.90735E-006,     0.00, 1.26721E-006,    48.81, 2.74181E-006,   180.00,          0,     0.00,          0,     0.00, 2.13248E-006,   153.43
Line.SW_FIC3850, 1.19209E-006,     0.00, 1.39531E-006,   -19.98, 1.45024E-006,   -99.46,          0,     0.00, 2.9611E-006,   -40.10, 2.38419E-007,     0.00, 4.29815E-007,  -146.31, 9.83025E-007,    75.96,          0,     0.00, 7.25122E-007,    80.54
Line.SW_FX2297, 3.37175E-007,    45.00, 2.63342E-006,    -5.19, 1.50789E-006,   161.57,          0,     0.00, 1.50789E-006,    18.43, 1.52662E-006,    51.34, 1.19209E-006,   180.00,          0,     0.00,          0,     0.00, 1.2157E-006,   101.31
Line.SW_FU4749, 1.45513E-006,    55.01, 2.19811E-006,   -49.40, 5.3312E-007,   -63.43,          0,     0.00, 2.6789E-006,   -20.85, 7.63312E-007,  -141.34, 2.24924E-006,   122.01, 1.19209E-006,  -126.87,          0,     0.00, 2.5484E-006,   169.22
Line.SW_FF0625, 1.26721E-006,    48.81, 1.70682E-006,   -24.78, 9.83025E-007,  -104.04,          0,     0.00, 2.26184E-006,   -18.43, 2.6656E-007,  -116.57, 1.49369E-006,   151.39, 2.38419E-007,   180.00,          0,     0.00, 1.73571E-006,   164.05
Line.SW_FP5989_DP_19738, 1.43547E-006,   -41.63, 2.6226E-006,     0.00, 1.90735E-006,   180.00,          0,     0.00, 2.02656E-006,   -28.07, 1.43547E-006,    94.76, 2.4314E-006,   168.69, 1.06624E-006,   -26.57,          0,     0.00, 2.10903E-006,   137.29
Line.SW_FP4528,    5.01677,   138.33,    5.01677,    18.33,    5.01677,  -101.67,          0,     0.00, 9.61096E-007,    82.87,    5.01677,   -41.67,    5.01677,  -161.67,    5.01677,    78.33,          0,     0.00, 1.01852E-006,   -69.44
Line.SW_FW6078,    1.58661,   138.31,    1.58661,    18.31,    1.58661,  -101.69,          0,     0.00, 1.6038E-006,  -131.99,    1.58661,   -41.69,    1.58661,  -161.69,    1.58661,    78.31,          0,     0.00, 1.81965E-006,    31.61
Line.SW_FIC3860,    5.01677,   138.33,    5.01677,    18.33,    5.01677,  -101.67,          0,     0.00, 2.98975E-006,  -175.43,    5.01677,   -41.67,    5.01677,  -161.67,    5.01677,    78.33,          0,     0.00, 3.25378E-006,     8.43
Line.SW_FX5275, 5.3312E-007,   -63.43, 8.67857E-007,   -15.95, 4.76837E-007,   180.00,          0,     0.00, 9.31054E-007,   -50.19, 1.19209E-006,   126.87, 4.29815E-007,   146.31, 7.15256E-007,   180.00,          0,     0.00, 2.14908E-006,   146.31
Line.SW_FP0937,          0,     0.00, 1.17408E-006,   -23.96, 1.28392E-006,   158.20,          0,     0.00, 1.19209E-007,   180.00, 4.76837E-007,    90.00, 8.34465E-007,   180.00, 6.7435E-007,   -45.00,          0,     0.00, 3.57628E-007,   180.00
Line.SW_FU4651, 1.28945E-006,   -33.69, 7.53946E-007,   -71.57, 1.3487E-006,   135.00,          0,     0.00, 5.96046E-007,   -53.13, 1.26721E-006,   131.19, 4.76837E-007,   180.00, 1.06624E-006,    63.43,          0,     0.00, 2.0819E-006,   113.63
Line.SW_FIC3996, 7.53946E-007,  -161.57, 1.80396E-006,     7.59, 4.76837E-007,   -90.00,          0,     0.00, 1.17408E-006,   -23.96, 6.7435E-007,    45.00, 1.01852E-006,   -69.44, 1.3487E-006,   135.00,          0,     0.00, 4.91512E-007,   104.04
Line.SW_FU4551,    280.728,   138.36,    280.728,    18.36,    280.728,  -101.64,          0,     0.00, 8.73058E-005,   167.86,    280.728,   -41.64,    280.728,  -161.64,    280.728,    78.36,          0,     0.00, 8.7772E-005,   -12.07
Line.SW_FX4536,    39.8921,   138.24,     39.892,    18.24,    39.8921,  -101.76,          0,     0.00, 5.14654E-005,   160.52,    39.8921,   -41.76,     39.892,  -161.76,    39.8921,    78.24,          0,     0.00, 5.10161E-005,   -19.66
...